34Bus/Test runs/Combination/ieee34-1_VLN_Node.Txt

LINE-GROUND and LINE-LINE VOLTAGES BY BUS & NODE

Bus       Node    VLN (kV)   Angle      pu     Base kV    Node-Node   VLL (kV)  Angle      pu

SOURCEBUS 1       41.829 /_   30.0      1.05    69.000        1-2      72.45 /_   60.0      1.05
   -      2       41.829 /_  -90.0      1.05    69.000        2-3      72.45 /_  -60.0      1.05
   -      3       41.829 /_  150.0      1.05    69.000        3-1      72.45 /_  180.0      1.05
800 ..... 1       15.095 /_    0.0      1.05    24.900        1-2     26.145 /_   30.0      1.05
   -      2       15.095 /_ -120.0      1.05    24.900        2-3     26.145 /_  -90.0      1.05
   -      3       15.095 /_  120.0      1.05    24.900        3-1     26.145 /_  150.0      1.05
802 ..... 1       15.062 /_   -0.1    1.0477    24.900        1-2     26.102 /_   30.0    1.0483
   -      2       15.076 /_ -120.1    1.0487    24.900        2-3      26.11 /_  -90.1    1.0486
   -      3       15.076 /_  119.9    1.0487    24.900        3-1     26.101 /_  149.9    1.0482
806 ..... 1       15.041 /_   -0.1    1.0462    24.900        1-2     26.074 /_   29.9    1.0472
   -      2       15.064 /_ -120.1    1.0478    24.900        2-3     26.087 /_  -90.1    1.0477
   -      3       15.064 /_  119.9    1.0479    24.900        3-1     26.072 /_  149.9    1.0471
808 ..... 1       14.632 /_   -0.7    1.0178    24.900        1-2     25.556 /_   29.4    1.0263
   -      2        14.85 /_ -120.9     1.033    24.900        2-3     25.683 /_  -90.8    1.0314
   -      3       14.844 /_  119.3    1.0326    24.900        3-1     25.537 /_  149.1    1.0256
810 ..... 2       14.848 /_ -120.9    1.0329    24.900
812 ..... 1       14.156 /_   -1.6   0.98468    24.900        1-2     24.958 /_   28.8    1.0023
   -      2       14.619 /_ -121.9    1.0169    24.900        2-3     25.224 /_  -91.7     1.013
   -      3       14.582 /_  118.6    1.0144    24.900        3-1     24.915 /_  148.1    1.0006
814 ..... 1       13.778 /_   -2.2    0.9584    24.900        1-2     24.482 /_   28.3   0.98321
   -      2       14.436 /_ -122.6    1.0041    24.900        2-3      24.86 /_  -92.3   0.99838
   -      3       14.374 /_  118.1   0.99982    24.900        3-1     24.423 /_  147.2   0.98083
814R .... 1       14.722 /_   -2.3    1.0241    24.900        1-2     25.532 /_   27.5    1.0254
   -      2       14.705 /_ -122.6    1.0229    24.900        2-3     25.323 /_  -92.3     1.017
   -      3       14.642 /_  118.1    1.0185    24.900        3-1     25.473 /_  148.0     1.023
850 ..... 1       14.722 /_   -2.3    1.0241    24.900        1-2     25.532 /_   27.5    1.0254
   -      2       14.704 /_ -122.6    1.0228    24.900        2-3     25.323 /_  -92.3     1.017
   -      3       14.642 /_  118.1    1.0185    24.900        3-1     25.473 /_  148.0     1.023
816 ..... 1       14.717 /_   -2.3    1.0237    24.900        1-2     25.525 /_   27.5    1.0251
   -      2       14.701 /_ -122.6    1.0226    24.900        2-3     25.317 /_  -92.4    1.0168
   -      3       14.638 /_  118.1    1.0182    24.900        3-1     25.466 /_  148.0    1.0227
818 ..... 1       14.704 /_   -2.3    1.0228    24.900
824 ..... 1       14.606 /_   -2.4     1.016    24.900        1-2     25.339 /_   27.3    1.0176
   -      2       14.583 /_ -122.9    1.0144    24.900        2-3     25.129 /_  -92.6    1.0092
   -      3       14.536 /_  117.8    1.0111    24.900        3-1     25.264 /_  147.8    1.0146
820 ..... 1       14.365 /_   -2.3   0.99923    24.900
822 ..... 1       14.322 /_   -2.3   0.99621    24.900
826 ..... 2        14.58 /_ -122.9    1.0142    24.900
828 ..... 1       14.597 /_   -2.4    1.0153    24.900        1-2     25.325 /_   27.3    1.0171
   -      2       14.574 /_ -122.9    1.0138    24.900        2-3     25.114 /_  -92.6    1.0086
   -      3       14.527 /_  117.8    1.0105    24.900        3-1     25.247 /_  147.8    1.0139
830 ..... 1       14.377 /_   -2.7         1    24.900        1-2     24.974 /_   27.0     1.003
   -      2       14.365 /_ -123.3    0.9992    24.900        2-3      24.76 /_  -93.1   0.99437
   -      3       14.318 /_  117.3   0.99598    24.900        3-1     24.847 /_  147.4   0.99788
854 ..... 1       14.371 /_   -2.7   0.99967    24.900        1-2     24.965 /_   27.0    1.0026
   -      2       14.359 /_ -123.3   0.99884    24.900        2-3     24.751 /_  -93.1   0.99402
   -      3       14.313 /_  117.3   0.99563    24.900        3-1     24.837 /_  147.4   0.99748
832 ..... 1       15.039 /_   -3.2    1.0461    24.900        1-2     26.097 /_   26.2    1.0481
   -      2        14.95 /_ -124.2    1.0399    24.900        2-3     25.788 /_  -93.9    1.0356
   -      3       14.906 /_  116.4    1.0368    24.900        3-1     25.874 /_  146.7    1.0391
858 ..... 1       15.007 /_   -3.2    1.0439    24.900        1-2     26.045 /_   26.2     1.046
   -      2       14.918 /_ -124.2    1.0377    24.900        2-3     25.735 /_  -94.0    1.0335
   -      3       14.875 /_  116.3    1.0347    24.900        3-1     25.813 /_  146.7    1.0367
834 ..... 1       14.969 /_   -3.3    1.0413    24.900        1-2     25.984 /_   26.1    1.0435
   -      2        14.88 /_ -124.4     1.035    24.900        2-3     25.675 /_  -94.2    1.0311
   -      3        14.84 /_  116.1    1.0323    24.900        3-1     25.743 /_  146.6    1.0339
860 ..... 1       14.963 /_   -3.3    1.0408    24.900        1-2     25.974 /_   26.1    1.0431
   -      2       14.873 /_ -124.4    1.0346    24.900        2-3     25.665 /_  -94.2    1.0307
   -      3       14.835 /_  116.1    1.0319    24.900        3-1     25.732 /_  146.6    1.0334
842 ..... 1       14.968 /_   -3.3    1.0412    24.900        1-2     25.983 /_   26.1    1.0435
   -      2       14.879 /_ -124.4     1.035    24.900        2-3     25.673 /_  -94.2    1.0311
   -      3       14.839 /_  116.1    1.0322    24.900        3-1     25.742 /_  146.5    1.0338
836 ..... 1        14.96 /_   -3.3    1.0406    24.900        1-2     25.967 /_   26.1    1.0429
   -      2       14.868 /_ -124.4    1.0342    24.900        2-3     25.659 /_  -94.2    1.0305
   -      3       14.833 /_  116.1    1.0318    24.900        3-1     25.727 /_  146.6    1.0332
840 ..... 1       14.959 /_   -3.3    1.0406    24.900        1-2     25.967 /_   26.1    1.0428
   -      2       14.868 /_ -124.4    1.0342    24.900        2-3     25.658 /_  -94.2    1.0304
   -      3       14.832 /_  116.1    1.0317    24.900        3-1     25.726 /_  146.6    1.0332
862 ..... 1        14.96 /_   -3.3    1.0406    24.900        1-2     25.967 /_   26.1    1.0429
   -      2       14.868 /_ -124.4    1.0342    24.900        2-3     25.658 /_  -94.2    1.0305
   -      3       14.833 /_  116.1    1.0318    24.900        3-1     25.727 /_  146.6    1.0332
844 ..... 1       14.965 /_   -3.3     1.041    24.900        1-2     25.977 /_   26.0    1.0432
   -      2       14.874 /_ -124.4    1.0347    24.900        2-3     25.667 /_  -94.2    1.0308
   -      3       14.836 /_  116.1     1.032    24.900        3-1     25.736 /_  146.5    1.0336
846 ..... 1        14.97 /_   -3.4    1.0413    24.900        1-2     25.981 /_   26.0    1.0434
   -      2       14.875 /_ -124.4    1.0347    24.900        2-3     25.672 /_  -94.2     1.031
   -      3       14.841 /_  116.0    1.0323    24.900        3-1     25.743 /_  146.5    1.0339
848 ..... 1       14.971 /_   -3.4    1.0414    24.900        1-2     25.982 /_   26.0    1.0435
   -      2       14.875 /_ -124.4    1.0347    24.900        2-3     25.673 /_  -94.2    1.0311
   -      3       14.842 /_  116.0    1.0324    24.900        3-1     25.745 /_  146.5    1.0339
852R .... 1       15.039 /_   -3.2    1.0461    24.900        1-2     26.097 /_   26.2    1.0481
   -      2        14.95 /_ -124.2    1.0399    24.900        2-3     25.788 /_  -93.9    1.0357
   -      3       14.906 /_  116.4    1.0369    24.900        3-1     25.874 /_  146.7    1.0391
888 ..... 1       2.4517 /_   -4.2    1.0208     4.160        1-2     4.2549 /_   25.2    1.0228
   -      2       2.4373 /_ -125.2    1.0148     4.160        2-3     4.2039 /_  -95.0    1.0105
   -      3       2.4301 /_  115.3    1.0118     4.160        3-1     4.2181 /_  145.7     1.014
856 ..... 2       14.358 /_ -123.4   0.99875    24.900
852 ..... 1       13.991 /_   -3.2   0.97324    24.900        1-2      24.35 /_   26.3   0.97789
   -      2        13.99 /_ -124.1   0.97313    24.900        2-3     24.131 /_  -93.9   0.96912
   -      3       13.948 /_  116.4   0.97024    24.900        3-1     24.142 /_  146.7   0.96955
864 ..... 1       15.007 /_   -3.2    1.0439    24.900
838 ..... 2       14.866 /_ -124.4    1.0341    24.900
890 ..... 1       2.3123 /_   -4.6   0.96273     4.160        1-2     4.0306 /_   24.7    0.9689
   -      2       2.3117 /_ -125.9    0.9625     4.160        2-3     3.9734 /_  -95.8   0.95515
   -      3       2.2919 /_  114.7   0.95423     4.160        3-1     3.9742 /_  145.2   0.95535
